Questionable use of curly braces in ".model sir870adp vdmos(rg=3 vto=2.9 rd=3.2m rs=1.5m rb={m} kp=100 mtriode=1.85 cgdmax=1.4n cgdmin=70p cgs=2.9n cjo=3.6n m=.4 a=.7 vj=.7 lambda=20m is=3p ksubthres=.08 mfg=siliconix vds=100 ron=5.5m qg=53.5n)"
    Error: undefined symbol in: "[m]"
Circuit: * C:\Users\max19_000\Documents\GitHub\Power2LabPowerSupply\Simulations\Snupper_simulation.asc

Direct Newton iteration for .op point succeeded.

Date: Wed Jan 03 19:40:23 2018
Total elapsed time: 111.919 seconds.

tnom = 27
temp = 27
method = modified trap
totiter = 4477262
traniter = 4477249
tranpoints = 1242031
accept = 814673
rejected = 427358
matrix size = 17
fillins = 4
solver = Alternate
Matrix Compiler1: 1.21 KB object code size  2.0/1.6/[1.1]
Matrix Compiler2: 1.50 KB object code size  1.3/1.5/[1.2]


